%nprocshared=12
%chk=checkpoint.chk
%mem=12GB
# Opt B3LYP/Def2TZVP freq=noraman pop=none
 
int_initalOpt
 
0 1
6 0.566336 1.041248 -0.034026
6 -0.841712 0.863253 0.027557
6 -1.087272 -0.488196 -0.007343
7 0.121678 -1.128696 -0.087634
6 1.135938 -0.207155 -0.104577
1 2.166431 -0.511525 -0.164670
1 1.100469 1.976673 -0.027389
1 -1.588837 1.636712 0.090230
1 -2.011102 -1.039616 0.018037
1 0.245709 -2.123828 -0.127987
 
