%nprocshared=12
%chk=checkpoint.chk
%mem=12GB
# sp B3LYP/Def2TZVP NoSymm
 
ts_initalOptXYZ_aligned_AlignedSp
 
0 1
6 -0.137084 -1.043153 -0.196596 
6 1.160718 -0.582766 -0.014908 
6 -1.354451 -0.315558 0.308431 
6 -1.156494 1.049046 -0.169383 
1 -1.460350 -0.389820 1.393698 
1 -2.237876 -0.779037 -0.145285 
1 -0.970844 1.879931 0.493026 
1 -1.174537 1.240237 -1.232649 
1 -0.292088 -1.991357 -0.705041 
6 1.587615 0.715975 0.073677 
1 1.912314 -1.367253 0.104545 
1 1.109440 1.495412 -0.495258 
1 2.512119 0.970619 0.579631 
 
