%nprocshared=12
%chk=checkpoint.chk
%mem=12GB
# Opt=(TS, CalcFC, noeigentest, Z-matrix, MaxStep=10) Field=read NoSymm B3LYP/Def2TZVP freq=noraman pop=none
 
ts_zmat_initalOpt
 
0 1
 C
 C,1,R2
 C,1,R3,2,A3
 H,1,R4,2,A4,3,D4,0
 C,3,R5,1,A5,2,D5,0
 H,3,R6,1,A6,5,D6,0
 H,3,R7,1,A7,5,D7,0
 C,2,R8,1,A8,3,D8,0
 H,2,R9,1,A9,8,D9,0
 H,5,R10,3,A10,1,D10,0
 H,5,R11,3,A11,10,D11,0
 H,8,R12,2,A12,1,D12,0
 H,8,R13,2,A13,12,D13,0
      Variables:
 R2=1.38897687
 R3=1.50546643
 R4=1.08702961
 R5=1.45932768
 R6=1.09294735
 R7=1.09595197
 R8=1.36996954
 R9=1.09297091
 R10=1.07871289
 R11=1.0804694
 R12=1.07696815
 R13=1.08422353
 A3=123.46834403
 A4=118.9171403
 A5=103.438631
 A6=112.24803153
 A7=107.97209234
 A8=127.86756477
 A9=114.7660538
 A10=122.85703423
 A11=119.03921765
 A12=120.90318981
 A13=121.23389339
 D4=-178.25373076
 D5=49.95401541
 D6=-122.96215582
 D7=118.46512589
 D8=-30.67262251
 D9=177.67396056
 D10=-112.52616816
 D11=178.67074378
 D12=-34.33522213
 D13=-169.52735709
 
0.00124479304776 -6.65441819367e-05 0.00216703994889 0.0 0.0 0.0 0.0 0.0 0.0
0.0 0.0 0.0 0.0 0.0 0.0 0.0 0.0 0.0 0.0
0.0 0.0 0.0 0.0 0.0 0.0 0.0 0.0 0.0 0.0 0.0 0.0 0.0 0.0 0.0


