%nprocshared=12
%chk=checkpoint.chk
%mem=12GB
# sp B3LYP/Def2TZVP NoSymm
 
ts_initalOpt_zmat_AlignedSp
 
0 1
 H
 C,1,R2
 C,2,R3,1,A3
 C,2,R4,1,A4,3,D4,0
 H,3,R5,2,A5,1,D5,0
 C,3,R6,2,A6,5,D6,0
 C,4,R3,2,A7,1,D7,0
 H,4,R2,2,A4,7,D8,0
 C,6,R9,3,A9,2,D9,0
 C,6,R10,3,A10,9,D10,0
 H,7,R5,4,A5,2,D11,0
 H,9,R12,6,A12,3,D12,0
 C,10,R9,6,A13,3,D13,0
 H,9,R14,6,A14,12,D14,0
 H,13,R12,10,A12,6,D15,0
 H,13,R14,10,A14,15,D14,0
      Variables:
 R2=1.08298136
 R3=1.38052918
 R4=1.41374326
 R5=1.08353118
 R6=1.40545292
 R9=1.42382546
 R10=1.41211469
 R12=1.07813891
 R14=1.08820331
 A3=119.65225245
 A4=118.80285074
 A5=121.06651427
 A6=117.09467541
 A7=121.49926127
 A9=133.35745774
 A10=120.32937964
 A12=117.953817
 A13=106.2471211
 A14=123.04379355
 D4=-177.58037108
 D5=-1.69593942
 D6=-174.74822037
 D7=-177.85977671
 D8=177.53381085
 D9=164.30520629
 D10=-176.59725072
 D11=175.81731673
 D12=-120.94221345
 D13=-159.04370447
 D14=156.53443995
 D15=55.99892093
 
