%nprocshared=12
%chk=checkpoint.chk
%mem=12GB
# Opt=(TS, CalcFC, noeigentest, Z-matrix, MaxStep=10) Field=read NoSymm B3LYP/Def2TZVP freq=noraman pop=none
 
ts_zmat_initalOpt
 
0 1
 H
 C,1,R2
 C,2,R3,1,A3
 C,2,R4,1,A4,3,D4,0
 H,3,R5,2,A5,1,D5,0
 C,3,R6,2,A6,5,D6,0
 H,4,R7,2,A7,1,D7,0
 H,4,R8,2,A8,7,D8,0
 H,6,R9,3,A9,2,D9,0
 C,6,R10,3,A10,9,D10,0
 H,10,R11,6,A11,3,D11,0
 O,10,R12,6,A12,11,D12,0
      Variables:
 R2=1.08300587
 R3=1.38897396
 R4=1.39154798
 R5=1.08604499
 R6=1.39888274
 R7=1.08253896
 R8=1.08112526
 R9=1.08156519
 R10=1.41317811
 R11=1.09688771
 R12=1.25677048
 A3=120.74978445
 A4=121.10235265
 A5=120.0086075
 A6=120.88860272
 A7=120.84503568
 A8=118.50256483
 A9=119.66859241
 A10=118.97527023
 A11=115.63487628
 A12=128.0709295
 D4=169.30336669
 D5=-20.23414585
 D6=168.74001098
 D7=-6.47072275
 D8=152.61335417
 D9=-176.82554659
 D10=154.18448499
 D11=-142.9618083
 D12=171.43425531
 
-0.00118491099415 0.000151347606995 0.00219615114184 0.0 0.0 0.0 0.0 0.0 0.0
0.0 0.0 0.0 0.0 0.0 0.0 0.0 0.0 0.0 0.0
0.0 0.0 0.0 0.0 0.0 0.0 0.0 0.0 0.0 0.0 0.0 0.0 0.0 0.0 0.0


