%nprocshared=12
%chk=checkpoint.chk
%mem=12GB
# Opt=(TS, CalcFC, noeigentest) B3LYP/Def2TZVP freq=noraman pop=none
 
ts_initalOpt
 
0 1
1 2.285651 0.003367 -0.896848 
6 1.443808 0.033660 -0.216198 
6 0.728228 1.208428 -0.023554 
1 1.175784 2.164867 -0.277347 
6 -0.638935 1.176457 0.270922 
1 -1.187855 2.103484 0.366265 
6 -1.390606 0.035692 -0.090631 
1 -2.412078 0.231349 -0.439165 
8 -0.992588 -1.151118 -0.202587 
6 0.909673 -1.134568 0.318919 
1 1.255289 -2.105484 -0.012382 
1 0.510912 -1.106655 1.323430 
 
