%nprocshared=12
%chk=checkpoint.chk
%mem=12GB
# Opt B3LYP/Def2TZVP
 
int_initalOpt
 
0 1
1 1.963280 1.472077 -0.306293 
6 1.078206 0.888467 -0.089212 
6 -0.148222 1.419024 -0.059668 
1 -0.310514 2.472819 -0.249872 
6 -1.294047 0.547968 0.143988 
1 -2.286852 0.943773 0.297709 
6 -1.118720 -0.772586 -0.015022 
1 -1.922676 -1.496068 -0.057151 
8 0.089688 -1.337039 -0.244302 
6 1.222489 -0.572647 0.223468 
1 2.090156 -1.018520 -0.260039 
1 1.310868 -0.739127 1.308732 
 
