%nprocshared=12
%chk=checkpoint.chk
%mem=12GB
# sp B3LYP/Def2TZVP NoSymm
 
int_initalOpt_zmat_AlignedSp
 
0 1
 C
 C,1,R2
 C,1,R3,2,A3
 H,1,R4,2,A4,3,D4,0
 C,2,R5,1,A5,3,D5,0
 N,3,R6,1,A6,2,D6,0
 H,3,R7,1,A7,6,D7,0
 H,2,R8,1,A8,5,D8,0
 H,5,R9,2,A9,1,D9,0
 H,6,R10,3,A10,1,D10,0
      Variables:
 R2=1.420589
 R3=1.37402098
 R4=1.07720052
 R5=1.37402123
 R6=1.37049311
 R7=1.07618219
 R8=1.07720135
 R9=1.07618293
 R10=1.0036425
 A3=107.41410278
 A4=126.87085874
 A5=107.4141286
 A6=107.66856017
 A7=131.05515948
 A8=126.8708305
 A9=131.05510411
 A10=125.08267231
 D4=180.
 D5=0.
 D6=-0.00015086
 D7=-179.99978424
 D8=-179.99981624
 D9=-179.99987016
 D10=-179.99939921
 
