%nprocshared=12
%chk=checkpoint.chk
%mem=12GB
# sp B3LYP/Def2TZVP NoSymm
 
int_initalOpt_zmat_AlignedSp
 
0 1
 H
 C,1,R2
 C,2,R3,1,A3
 C,2,R4,1,A4,3,D4,0
 H,3,R5,2,A5,1,D5,0
 C,3,R6,2,A6,5,D6,0
 N,4,R7,2,A7,1,D7,0
 H,4,R8,2,A8,7,D8,0
 H,6,R9,3,A9,2,D9,0
 H,7,R10,4,A10,2,D10,0
      Variables:
 R2=1.07720052
 R3=1.420589
 R4=1.37402098
 R5=1.07720135
 R6=1.37402123
 R7=1.37049311
 R8=1.07618219
 R9=1.07618293
 R10=1.0036425
 A3=126.87085874
 A4=125.71503849
 A5=126.8708305
 A6=107.4141286
 A7=107.66856017
 A8=131.05515948
 A9=131.05510411
 A10=125.08267231
 D4=180.
 D5=0.0001127
 D6=179.99981624
 D7=179.99986334
 D8=-179.99978424
 D9=-179.99987016
 D10=-179.99939921
 
