%nprocshared=12
%chk=checkpoint.chk
%mem=12GB
# sp B3LYP/Def2TZVP NoSymm
 
int_initalOptXYZ_aligned_AlignedSp
 
0 1
6 -0.426588 -0.455095 -0.295457
6 -1.731775 -0.534364 -0.526211
1 -2.266028 0.364641 -0.819053
6 -2.567027 -1.774818 -0.419678
1 -1.988723 -2.642518 -0.102132
1 -3.032563 -2.017401 -1.379976
1 -3.383125 -1.636392 0.295928
6 0.481471 -1.585870 0.147085
8 1.796528 -1.038784 0.208843
1 0.502342 -2.426583 -0.549599
1 0.181997 -1.968052 1.133184
6 1.664202 0.357476 0.447817
6 0.458099 0.784974 -0.395741
1 2.599109 0.836075 0.158931
1 1.479583 0.549629 1.513498
6 -0.197464 2.087644 -0.048929
1 0.802024 0.852182 -1.437998
6 0.244661 2.988767 0.820026
1 -1.110757 2.304305 -0.595511
1 1.153272 2.852045 1.393344
1 -0.296182 3.911007 0.990110
 
