%nprocshared=12
%chk=checkpoint.chk
%mem=12GB
# Opt=(Z-matrix, MaxStep=10) B3LYP/Def2TZVP Field=read NoSymm
 
int_zmat_initalOpt
 
0 1
 H
 C,1,R2
 C,2,R3,1,A3
 C,2,R4,1,A4,3,D4,0
 H,3,R5,2,A5,1,D5,0
 O,3,R6,2,A6,5,D6,0
 C,4,R7,2,A7,1,D7,0
 H,4,R8,2,A8,7,D8,0
 C,6,R9,3,A9,2,D9,0
 H,7,R10,4,A10,2,D10,0
 H,9,R11,6,A11,3,D11,0
 H,9,R12,6,A12,11,D12,0
      Variables:
 R2=1.07979245
 R3=1.34159979
 R4=1.45366072
 R5=1.0823795
 R6=1.35330208
 R7=1.33659615
 R8=1.08305164
 R9=1.44441743
 R10=1.08216452
 R11=1.08877293
 R12=1.10150995
 A3=119.85698528
 A4=121.67044399
 A5=124.43544722
 A6=123.18359646
 A7=119.24238206
 A8=119.30892457
 A9=115.13162512
 A10=122.73965562
 A11=105.33493199
 A12=107.57848006
 D4=172.36864086
 D5=3.58852536
 D6=174.73853324
 D7=172.24225973
 D8=175.95282511
 D9=24.54183964
 D10=175.56050598
 D11=-165.50927259
 D12=-115.20866619
 
0.0013170352473 -0.00212335434047 -8.23680895942e-05 0.0 0.0 0.0 0.0 0.0 0.0
0.0 0.0 0.0 0.0 0.0 0.0 0.0 0.0 0.0 0.0
0.0 0.0 0.0 0.0 0.0 0.0 0.0 0.0 0.0 0.0 0.0 0.0 0.0 0.0 0.0


