%nprocshared=12
%chk=checkpoint.chk
%mem=12GB
# Opt=(TS, CalcFC, noeigentest) B3LYP/Def2TZVP freq=noraman pop=none
 
ts_initalOpt
 
0 1
6 -2.778140 -1.119381 0.199054 
6 -1.444834 -0.558425 -0.128425 
1 -2.754085 -2.209423 0.262483 
1 -3.516183 -0.837693 -0.555986 
1 -3.136841 -0.727221 1.153950 
6 -0.251666 -0.808990 -0.401296 
6 0.942765 -1.662199 -0.387298 
8 1.983886 -1.061565 0.393749 
1 1.314527 -1.851991 -1.400527 
1 0.706236 -2.626886 0.073187 
6 1.732104 0.321132 0.679823 
6 1.043306 0.955450 -0.490632 
1 2.720962 0.759356 0.836253 
1 1.158331 0.430001 1.605943 
6 0.092040 1.953972 -0.516236 
1 1.632129 0.854176 -1.400425 
6 -0.985977 2.042685 0.386563 
1 -0.047165 2.446660 -1.474166 
1 -0.822120 1.823326 1.437747 
1 -1.507673 0.858489 0.038826 
1 -1.716790 2.828260 0.223392 
 
