%nprocshared=12
%chk=checkpoint.chk
%mem=12GB
# Opt=(Z-matrix, MaxStep=10) B3LYP/Def2TZVP Field=read NoSymm freq=noraman pop=none
 
int_zmat_initalOpt
 
0 1
 C
 C,1,R2
 C,1,R3,2,A3
 H,1,R4,2,A4,3,D4,0
 H,1,R5,2,A5,3,D5,0
 H,3,R6,1,A6,2,D6,0
 H,3,R7,1,A7,6,D7,0
 C,2,R8,1,A8,3,D8,0
 H,2,R9,1,A9,8,D9,0
 C,8,R10,2,A10,1,D10,0
 H,8,R11,2,A11,10,D11,0
 H,10,R12,8,A12,2,D12,0
 H,10,R13,8,A13,12,D13,0
      Variables:
 R2=1.51567194
 R3=1.5038632
 R4=1.08189852
 R5=1.08199984
 R6=1.0812518
 R7=1.08179327
 R8=1.48255734
 R9=1.08550805
 R10=1.3284951
 R11=1.08780376
 R12=1.08330891
 R13=1.08240687
 A3=59.61705649
 A4=117.06940358
 A5=118.19649144
 A6=117.54238164
 A7=118.30500485
 A8=120.40577961
 A9=114.12300877
 A10=126.7284741
 A11=114.76083728
 A12=122.1177442
 A13=121.19382615
 D4=-107.55222436
 D5=108.53516636
 D6=-108.68011275
 D7=-143.56333647
 D8=112.74365581
 D9=140.51370361
 D10=-87.85230896
 D11=179.58988993
 D12=-1.46418387
 D13=-179.80810687
 
0.000723875535945 0.00238889122963 -0.000138574534002 0.0 0.0 0.0 0.0 0.0 0.0
0.0 0.0 0.0 0.0 0.0 0.0 0.0 0.0 0.0 0.0
0.0 0.0 0.0 0.0 0.0 0.0 0.0 0.0 0.0 0.0 0.0 0.0 0.0 0.0 0.0


