%nprocshared=12
%chk=checkpoint.chk
%mem=12GB
# sp B3LYP/Def2TZVP NoSymm
 
ts_initalOptXYZ_aligned_AlignedSp
 
0 1
1 1.084881 2.004755 0.023577 
1 -1.577130 1.643546 0.024648 
1 -2.001850 -1.017695 0.052466 
1 0.802505 -0.985074 0.952486 
6 0.556135 1.064926 0.004904 
6 -0.822083 0.872407 -0.004122 
6 -1.054914 -0.503437 -0.015857 
7 0.090759 -1.214346 -0.080367 
6 1.139062 -0.208206 -0.021020 
1 2.147087 -0.499251 -0.274042 
 
