%nprocshared=12
%chk=checkpoint.chk
%mem=12GB
# sp B3LYP/Def2TZVP NoSymm
 
int_initalOptXYZ_aligned_AlignedSp
 
0 1
7 0.477415 0.209801 0.096326
6 -0.893445 0.397214 -0.542272
8 0.426951 0.491469 1.424881
6 -1.972561 -0.418263 0.138155
1 -1.904541 -0.270119 1.214815
1 -1.898291 -1.483316 -0.085176
1 -2.949500 -0.076971 -0.208170
1 -1.095929 1.460014 -0.422982
1 -0.811360 0.168009 -1.608176
6 1.432544 1.149408 -0.572507
1 2.398587 1.013404 -0.095215
1 1.075177 2.156445 -0.379292
1 1.495903 0.956228 -1.645620
6 0.963092 -1.194333 -0.103841
1 0.293659 -1.853061 0.438195
1 1.952233 -1.249618 0.340867
1 0.997260 -1.456299 -1.163427
 
