%nprocshared=12
%chk=checkpoint.chk
%mem=12GB
# sp B3LYP/Def2TZVP NoSymm
 
ts_initalOpt_zmat_AlignedSp
 
0 1
 C
 C,1,R2
 C,1,R3,2,A3
 C,1,R4,2,A4,3,D4,0
 H,2,R5,1,A5,3,D5,0
 C,2,R6,1,A6,5,D6,0
 C,3,R2,1,A3,2,D7,0
 C,3,R4,1,A8,7,D8,0
 H,4,R9,1,A9,2,D9,0
 H,4,R10,1,A10,9,D10,0
 C,6,R11,2,A11,1,D11,0
 H,6,R12,2,A12,11,D12,0
 H,7,R5,3,A5,1,D5,0
 H,8,R9,3,A9,1,D14,0
 H,8,R10,3,A10,14,D10,0
 H,11,R12,6,A16,2,D16,0
      Variables:
 R2=1.40545292
 R3=1.41211469
 R4=1.42382546
 R5=1.08353118
 R6=1.38052918
 R9=1.07813891
 R10=1.08820331
 R11=1.41374326
 R12=1.08298136
 A3=120.32937964
 A4=133.35745774
 A5=121.6231624
 A6=117.09467541
 A8=106.2471211
 A9=117.953817
 A10=123.04379355
 A11=121.49926127
 A12=119.65225245
 A16=118.80285074
 D4=176.59725072
 D5=172.99099312
 D6=174.71696244
 D7=18.37993993
 D8=-177.42364441
 D9=-120.94221345
 D10=156.53443995
 D11=1.06909636
 D12=-177.51325615
 D14=55.99892093
 D16=-177.85977671
 
