%nprocshared=12
%chk=checkpoint.chk
%mem=12GB
# Opt B3LYP/Def2TZVP freq=noraman pop=none
 
int_initalOpt
 
0 1
6 2.106192 -0.019220 -0.010356 
6 0.823890 -0.668845 -0.485922 
1 2.061547 0.106500 1.070371 
1 2.285940 0.948997 -0.479374 
1 2.948218 -0.666928 -0.259951 
7 -0.421603 0.001239 0.081462 
1 0.763147 -1.691341 -0.117702 
1 0.743962 -0.677917 -1.576313 
8 -0.371144 0.029447 1.439254 
6 -1.614059 -0.793748 -0.352720 
1 -2.489317 -0.311569 0.072686 
1 -1.507197 -1.786049 0.075166 
1 -1.685173 -0.843072 -1.441487 
6 -0.554687 1.397564 -0.447790 
1 0.285062 1.971776 -0.072332 
1 -1.474018 1.802245 -0.035132 
1 -0.579813 1.408598 -1.539469 
 
