%nprocshared=12
%chk=checkpoint.chk
%mem=12GB
# Opt B3LYP/Def2TZVP freq=noraman pop=none
 
int_initalOpt
 
0 1
6 1.846641 0.587602 1.266946
6 0.495542 -0.062647 1.111183
6 2.111812 -0.488613 -0.844946
6 2.685708 0.361240 0.258476
6 -0.134766 0.456667 -0.227704
6 0.832757 0.203144 -1.382093
1 0.352584 -0.415576 -2.138582
1 1.086781 1.156500 -1.847664
1 2.820056 -0.639182 -1.659581
1 -0.174074 0.154961 1.939114
6 1.690466 -1.847892 -0.230260
1 1.212229 -2.457273 -1.000036
1 2.573900 -2.390609 0.108006
6 0.719035 -1.589868 0.948526
1 -0.236206 -2.094714 0.789128
1 1.126163 -1.976305 1.883370
1 3.695907 0.748957 0.216883
1 2.087344 1.180171 2.139961
7 -0.438832 1.958116 0.061192
8 0.078274 2.733043 -0.674838
6 -1.527388 -0.140399 -0.460069
8 -1.892136 -0.658807 -1.484254
8 -2.310892 0.002841 0.618571
6 -3.661141 -0.474100 0.487324
1 -4.138761 -0.257210 1.438480
1 -4.168908 0.044250 -0.324893
1 -3.669069 -1.545007 0.287967
 
