%nprocshared=12
%chk=checkpoint.chk
%mem=12GB
# sp B3LYP/Def2TZVP NoSymm
 
ts_initalOptXYZ_aligned_AlignedSp
 
0 1
1 -1.187854 2.103485 0.366265 
6 -1.390606 0.035693 -0.090631 
1 -2.412078 0.231350 -0.439165 
8 -0.992589 -1.151118 -0.202587 
6 0.909672 -1.134568 0.318919 
1 1.255288 -2.105485 -0.012382 
1 0.510911 -1.106655 1.323430 
1 2.285651 0.003366 -0.896848 
6 1.443808 0.033659 -0.216198 
6 0.728228 1.208428 -0.023554 
1 1.175785 2.164867 -0.277347 
6 -0.638935 1.176457 0.270922 
 
