%nprocshared=12
%chk=checkpoint.chk
%mem=12GB
# sp B3LYP/Def2TZVP NoSymm
 
ts_initalOptXYZ_aligned_AlignedSp
 
0 1
6 -0.251628 -0.809318 -0.401129 
6 -1.444859 -0.558768 -0.128705 
1 -1.507793 0.858135 0.038500 
6 -2.778198 -1.119334 0.199258 
1 -2.754629 -2.209436 0.261785 
1 -3.516732 -0.836641 -0.554928 
1 -3.135922 -0.727769 1.154773 
6 0.942963 -1.662272 -0.387052 
8 1.984500 -1.061063 0.393068 
1 1.314300 -1.852471 -1.400362 
1 0.706801 -2.626786 0.073993 
6 1.731886 0.321276 0.679964 
6 1.043382 0.955787 -0.490544 
1 2.720453 0.759907 0.837102 
1 1.157643 0.429286 1.605896 
6 0.091833 1.953960 -0.516270 
1 1.632430 0.854618 -1.400203 
6 -0.986290 2.042385 0.386488 
1 -0.047364 2.446705 -1.474173 
1 -0.822468 1.822829 1.437635 
1 -1.717252 2.827837 0.223385 
 
